*Heading
** Job name: Job-1 Model name: Model-1
** Generated by: Abaqus/CAE 2016
*Preprint, echo=NO, model=NO, history=NO, contact=NO
**
** PARTS
**
*Part, name=Part-1
*Node
      1,           3.,           3.,          1.5
      2,           3.,          2.5,          1.5
      3,           3.,           2.,          1.5
      4,           3.,          1.5,          1.5
      5,           3.,           1.,          1.5
      6,           3.,          0.5,          1.5
      7,           3.,           0.,          1.5
      8,           3.,         -0.5,          1.5
      9,           3.,          -1.,          1.5
     10,           3.,         -1.5,          1.5
     11,           3.,          -2.,          1.5
     12,           3.,         -2.5,          1.5
     13,           3.,          -3.,          1.5
     14,           3.,           3.,           1.
     15,           3.,          2.5,           1.
     16,           3.,           2.,           1.
     17,           3.,          1.5,           1.
     18,           3.,           1.,           1.
     19,           3.,          0.5,           1.
     20,           3.,           0.,           1.
** ... 656 like lines cut
*Element, type=C3D8R
  1,  53,  54,  67,  66,   1,   2,  15,  14
  2,  54,  55,  68,  67,   2,   3,  16,  15
  3,  55,  56,  69,  68,   3,   4,  17,  16
  4,  56,  57,  70,  69,   4,   5,  18,  17
  5,  57,  58,  71,  70,   5,   6,  19,  18
  6,  58,  59,  72,  71,   6,   7,  20,  19
  7,  59,  60,  73,  72,   7,   8,  21,  20
  8,  60,  61,  74,  73,   8,   9,  22,  21
  9,  61,  62,  75,  74,   9,  10,  23,  22
 10,  62,  63,  76,  75,  10,  11,  24,  23
 11,  63,  64,  77,  76,  11,  12,  25,  24
 12,  64,  65,  78,  77,  12,  13,  26,  25
 13,  66,  67,  80,  79,  14,  15,  28,  27
 14,  67,  68,  81,  80,  15,  16,  29,  28
 15,  68,  69,  82,  81,  16,  17,  30,  29
 16,  69,  70,  83,  82,  17,  18,  31,  30
 17,  70,  71,  84,  83,  18,  19,  32,  31
 18,  71,  72,  85,  84,  19,  20,  33,  32
 19,  72,  73,  86,  85,  20,  21,  34,  33
 20,  73,  74,  87,  86,  21,  22,  35,  34
** ... 412 like lines cut
*Nset, nset=Set-1, generate
   1,  676,    1
*Elset, elset=Set-1, generate
   1,  432,    1
*Nset, nset=Z-
  40,  41,  42,  43,  44,  45,  46,  47,  48,  49,  50,  51,  52,  92,  93,  94
  95,  96,  97,  98,  99, 100, 101, 102, 103, 104, 144, 145, 146, 147, 148, 149
 150, 151, 152, 153, 154, 155, 156, 196, 197, 198, 199, 200, 201, 202, 203, 204
 205, 206, 207, 208, 248, 249, 250, 251, 252, 253, 254, 255, 256, 257, 258, 259
 260, 300, 301, 302, 303, 304, 305, 306, 307, 308, 309, 310, 311, 312, 352, 353
 354, 355, 356, 357, 358, 359, 360, 361, 362, 363, 364, 404, 405, 406, 407, 408
 409, 410, 411, 412, 413, 414, 415, 416, 456, 457, 458, 459, 460, 461, 462, 463
 464, 465, 466, 467, 468, 508, 509, 510, 511, 512, 513, 514, 515, 516, 517, 518
 519, 520, 560, 561, 562, 563, 564, 565, 566, 567, 568, 569, 570, 571, 572, 612
 613, 614, 615, 616, 617, 618, 619, 620, 621, 622, 623, 624, 664, 665, 666, 667
 668, 669, 670, 671, 672, 673, 674, 675, 676
*Nset, nset=Y-, generate
  13,  676,   13
*Nset, nset=X+, generate
  1,  52,   1
*Nset, nset=Y+, generate
   1,  664,   13
*Nset, nset=X-, generate
 625,  676,    1
** Section: Section-1
*Solid Section, elset=Set-1, material=Material-1
,
*End Part
**  
**
** ASSEMBLY
**
*Assembly, name=Assembly
**  
*Instance, name=Part-1-1, part=Part-1
*End Instance
**  
*Spring, elset=Z--spring
3
10000.
*Dashpot, elset=Z--dashpot
3
20000.
*Element, type=Spring1, elset=Z--spring
1, Part-1-1.40
3, Part-1-1.41
5, Part-1-1.42
7, Part-1-1.43
9, Part-1-1.44
11, Part-1-1.45
13, Part-1-1.46
15, Part-1-1.47
17, Part-1-1.48
19, Part-1-1.49
21, Part-1-1.50
23, Part-1-1.51
25, Part-1-1.52
27, Part-1-1.92
29, Part-1-1.93
31, Part-1-1.94
33, Part-1-1.95
35, Part-1-1.96
37, Part-1-1.97
39, Part-1-1.98
** ... 149 like lines cut
*Element, type=Dashpot1, elset=Z--dashpot
2, Part-1-1.40
4, Part-1-1.41
6, Part-1-1.42
8, Part-1-1.43
10, Part-1-1.44
12, Part-1-1.45
14, Part-1-1.46
16, Part-1-1.47
18, Part-1-1.48
20, Part-1-1.49
22, Part-1-1.50
24, Part-1-1.51
26, Part-1-1.52
28, Part-1-1.92
30, Part-1-1.93
32, Part-1-1.94
34, Part-1-1.95
36, Part-1-1.96
38, Part-1-1.97
40, Part-1-1.98
** ... 149 like lines cut
*End Assembly
** 
** MATERIALS
** 
*Material, name=Material-1
*Density
2150.,
*Elastic
 2.15e+07, 0.35
** ----------------------------------------------------------------
** 
** STEP: Step-1
** 
*Step, name=Step-1, nlgeom=NO, perturbation
*Frequency, eigensolver=Lanczos, sim=NO, acoustic coupling=on, normalization=displacement
30, , , , , 
** 
** OUTPUT REQUESTS
** 
*Restart, write, frequency=0
** 
** FIELD OUTPUT: F-Output-1
** 
*Output, field, variable=PRESELECT
*End Step

*step,name=matrix
*matrix generate,stiffness,mass
*matrix output,stiffness,mass
*end step